#!/bin/sh
# ---------------------------------------------------------------------------- #
# thread_check.sh : Check a version of the threaded engine to compute errors.  #
#                   Linux version with Moab scheduler.                         #
#                                                                              #
# remarks : When modifying this script for another environment take care of    #
#           the following requirements for the system to work.                 #
#            - Set tdata in section 1.                                         #
#            - Adjust section 2.b as needed.                                   #
#         - This is a safety valve, therefore the sleep at the end of the      #
#           script can be long.                                                #
#                                                                              #
#                                      Author      : Hendrik L. Tolman         #
#                                                                              #
# 20-Mar-2021 : Origination.                                                   #
#                                                                              #
#    Copyright 2012 National Weather Service (NWS),                            #
#       National Oceanic and Atmospheric Administration.  All rights           #
#       reserved.  Distributed as part of WAVEWATCH III. WAVEWATCH III is a    #
#       trademark of the NWS. No unauthorized use without permission.          #
#                                                                              #
# ---------------------------------------------------------------------------- #
# 1. Initialization

  set -e

  echo "thread_check.sh: keep track of control.sh and threads :"
  echo "-------------------------------------------------------"
  mother=$1

  ps > tmpfile
  mname="`cat tmpfile | grep $mother | awk '{print $4}'`"

  me=$$
  myname="`cat tmpfile | grep $me | awk '{print $4}'`"
  rm -f tmpfile

  nth=`sed -n 1,1p threads.data | awk '{print $1}'`
  tdata=`sed -n 2,2p threads.data`

  echo "   mother process $mother [$mname]"
  echo "   my process $me [$myname]"
  echo "   number of threads is $nth"
  echo "   threads job is $tdata"

# ---------------------------------------------------------------------------- #
# 2. Testing loop

  sleep 15

  echo ' '
  echo '   start testing'
  end='n'
  terr=0

  until [ "$end" = 'y' ]
  do

# 2.a check on mother script

    date
    check="`ps | grep $mother | awk '{print $2}'`"
    if [ -z "$check" ]
    then
      echo "   mother script stopped"
      end='y'
    else
      echo "   mother script running"
    fi

# 2.b check on threads (job exists in ll)

    set +e
    check="`qstat $tdata | grep $tdata | awk '{ print $5}'`"
    set -e

    OK='y'
    if [ -z "$check" ] ; then
      OK='n'
    else
      if [ "$check" = 'C' ] ; then
        OK='n' ; fi
    fi

    if [ "$OK" != 'y' ]
    then
      echo "   batch job disappeared"
      end='y'
      kill -9 $mother
    else
      echo "   batch job present"
    fi

    if [ "$end" != 'y' ] ; then
      sleep 600 ; fi

  done

# ---------------------------------------------------------------------------- #
# 3. End of processiing

  echo ' '
  echo 'End of thread_check.sh'

# End of thread_check.sh ----------------------------------------------------- #
