#!/bin/sh
# ---------------------------------------------------------------------------- #
# thread_start.sh : Start a version of the threaded engine to compute errors.  #
#                   Version for Linux clusters running Moab scheduler.         #
#                   This version uses MPI API to work with commandfile.        #
#                   (cmdfile_mpi.x needs to be compiled for MPI).              #
#                                                                              #
# remarks : When modifying this script for another environment take care of    #
#           the following requirements for the system to work.                 #
#            - The first line of the datafile contains the number of threads   #
#              only. The rest of the file depends on the engine.               #
#            - User modifications should be limited to section 3.              #
#            - Limit communication to $datafile only.                          #
#            - Each thread should generate output file thread_NNN.out.         #
#            - Set up for using 999 or less threads.                           #
#                                                                              #
#                                      Author      : Hendrik L. Tolman         #
#                                                                              #
# 26-Mar-2012 : Origination.                                                   #
#                                                                              #
#    Copyright 2012 National Weather Service (NWS),                            #
#       National Oceanic and Atmospheric Administration.  All rights           #
#       reserved.  Distributed as part of WAVEWATCH III. WAVEWATCH III is a    #
#       trademark of the NWS. No unauthorized use without permission.          #
#                                                                              #
# ---------------------------------------------------------------------------- #
# 1. Initialization
# 1.a Loadleveler job cards and start of script

cat > g_engine << EOF
#!/bin/sh

#PBS -l procs=60
#PBS -q batch
#PBS -l walltime=02:00:00
#PBS -A omd
#PBS -N g_engine
#PBS -j oe
#PBS -o g_engine.out

  echo 'Starting g_engine'
  echo ' '

EOF

# 1.b Find number of threads

  nr_threads=`grep 'procs=' g_engine | sed 's/procs=//g' | awk '{ print $3 }'`
  datafile=threads.data

  echo "$nr_threads" > $datafile

# ---------------------------------------------------------------------------- #
# 2.a Set up control files for threads

  ddir=`pwd`
  cmnd="$genes_main/ush/run_thread.sh"

  echo "  cd $ddir"                                              >> g_engine
  echo "  rm -f cmdfile"                                         >> g_engine
  echo ' '                                                       >> g_engine

  i=1
  j=0
  rm -f tdata.*

  while [ "$i" -le "$nr_threads" ]
  do
    if [ "$i" -lt '100' ] ; then
      i="0$i" ; fi
    if [ "$i" -lt '10' ] ; then
      i="0$i" ; fi
    outfile="thread_$i.out"
    echo "starting" > tdata.$i
#   echo "echo 'cd $ddir ; $cmnd $i > $outfile' >> cmdfile"      >> g_engine
    echo "echo '$cmnd $i > $outfile' >> cmdfile"      >> g_engine
    i=`expr $i + 1`
  done

  echo ' '                                                       >> g_engine
  echo "  mpiexec_mpt $genes_main/exe/cmdfile_mpi.x"             >> g_engine
  echo '  rm -f cmdfile'                                         >> g_engine
  echo ' '                                                       >> g_engine
  echo "  echo ' '"                                              >> g_engine
  echo "  echo 'End of g_engine'"                                >> g_engine

# ---------------------------------------------------------------------------- #
# 3. Start threads and add data to datafile

  touch g_engine.out

  qsub g_engine > g_engine.Moab 2>&1

  ID=`grep 'zeus' g_engine.Moab | sed 's/\./ /g'| awk '{ print $1}'`
  echo $ID >> threads.data

  rm -f g_engine.Moab

# End of thread_start.sh ----------------------------------------------------- #
